**
** ABAQUS Input Deck Generated by HyperMesh Version  : 8.0SR1
** Generated using HyperMesh-Abaqus Template Version : 8.0sr1
**
**   Template:  ABAQUS/STANDARD 3D
**
*NODE
    810190,  2385.1526726202,  -548.4986676673,  412.31954425895
    810191,  2385.4020725969,  -548.4986676205,  414.68956111042
    810192,  2386.1386822406,  -548.4986676189,  416.95595522948
    810193,  2387.3305108951,  -548.4986676178,  419.01951311702
    810194,  2388.9250417721,  -548.4986676096,  420.7906088849 
    810195,  2390.8530557591,  -548.4986676035,  422.19130122714
    810196,  2393.0301596412,  -548.4986676008,  423.16031463378
    810197,  2395.361151002 ,  -548.4986675983,  423.65600291138
    810198,  2397.7442586379,  -548.4986675985,  423.6560064769 
    810199,  2400.0752515511,  -548.498667601 ,  423.16032391747
    810200,  2402.2523567444,  -548.4986676062,  422.19131476301
    810201,  2404.1803710527,  -548.4986676138,  420.79062356041
    810202,  2405.774898859 ,  -548.498667624 ,  419.01952537657
    810203,  2406.966719539 ,  -548.4986676278,  416.95596189789
    810204,  2407.7033123482,  -548.4986676263,  414.68956441593
    810205,  2407.9526867778,  -548.4986676698,  412.31954424697
    810206,  2407.7035169334,  -548.4986676205,  409.94952470752
    810207,  2406.9669072897,  -548.498667619 ,  407.68313058847
    810208,  2405.7750786353,  -548.4986676179,  405.61957270093
    810209,  2404.1805477583,  -548.4986676096,  403.84847693306
** ... 8003 like lines cut
*ELEMENT,TYPE=S3,ELSET=Middle Surface_H
    720462,    815113,    815114,    815170
    720483,    815211,    815193,    815212
    720485,    815325,    815259,    815260
    721055,    815906,    815901,    815900
    721158,    815932,    815652,    815651
    721182,    815680,    815679,    816060
    721288,    816133,    816072,    816071
    721310,    816146,    816019,    816052
    721669,    816531,    816461,    816462
*ELEMENT,TYPE=S3,ELSET=Middle_Surface_I
    721966,    818124,    818086,    817274
    721987,    818180,    818179,    817381
    721989,    818052,    817164,    818067
    722559,    817745,    816974,    817706
    722662,    817764,    817038,    817036
    722686,    817066,    816838,    817858
    722792,    817020,    817008,    816917
    722814,    817801,    817234,    816863
    723173,    817445,    817491,    816852
*ELEMENT,TYPE=S4,ELSET=Middle Surface_G
    715520,    810545,    810548,    810550,    810544
    715521,    810544,    810550,    810539,    810540
    715522,    810548,    810549,    810551,    810550
    715523,    810550,    810551,    810538,    810539
    715524,    810549,    810531,    810532,    810551
    715525,    810551,    810532,    810533,    810538
    715526,    810518,    810519,    810552,    810547
    715527,    810547,    810552,    810553,    810546
    715528,    810546,    810553,    810548,    810545
    715529,    810529,    810554,    810520,    810521
    715530,    810554,    810552,    810519,    810520
    715531,    810531,    810549,    810555,    810530
    715532,    810530,    810555,    810554,    810529
    715533,    810549,    810548,    810553,    810555
    715534,    810555,    810553,    810552,    810554
    715535,    810502,    810556,    810560,    810501
    715536,    810501,    810560,    810543,    810500
    715537,    810556,    810557,    810559,    810560
    715538,    810560,    810559,    810542,    810543
    715539,    810557,    810558,    810561,    810559
** ... 4780 like lines cut
*ELEMENT,TYPE=S4,ELSET=Middle Surface_H
    720322,    815110,    815111,    815112,    815169
    720323,    815114,    815115,    815116,    815170
    720324,    815169,    815112,    815113,    815170
    720325,    815039,    815040,    815041,    815171
    720326,    815171,    815041,    815042,    815172
    720327,    815172,    815042,    815043,    815044
    720328,    815170,    815116,    815117,    815173
    720329,    815172,    815044,    815045,    815174
    720330,    815109,    815110,    815169,    815175
    720331,    815174,    815045,    815046,    815176
    720332,    815176,    815046,    815047,    815177
    720333,    815177,    815047,    815048,    815178
    720334,    815178,    815048,    815049,    815179
    720335,    815179,    815049,    815050,    815180
    720336,    815180,    815050,    815051,    815181
    720337,    815181,    815051,    815052,    815182
    720338,    815182,    815052,    815053,    815183
    720339,    815183,    815053,    815054,    815184
    720340,    815184,    815054,    815055,    815185
    720341,    815185,    815055,    815056,    815186
** ... 1475 like lines cut
*ELEMENT,TYPE=S4,ELSET=Middle_Surface_I
    721826,    817340,    817312,    818123,    817342
    721827,    817274,    818086,    817341,    818125
    721828,    817312,    818086,    818124,    818123
    721829,    818151,    818117,    818149,    817354
    721830,    818117,    818116,    818150,    818149
    721831,    818116,    817363,    817365,    818150
    721832,    818086,    817350,    817343,    817341
    721833,    818116,    818161,    818148,    817363
    721834,    818121,    817373,    817312,    817340
    721835,    818161,    817370,    817355,    818148
    721836,    817370,    818163,    818147,    817355
    721837,    818163,    818162,    818213,    818147
    721838,    818162,    817349,    818146,    818213
    721839,    817349,    818164,    817409,    818146
    721840,    818164,    817374,    817364,    817409
    721841,    817374,    817376,    818188,    817364
    721842,    817376,    818165,    818145,    818188
    721843,    818165,    818166,    818187,    818145
    721844,    818166,    817375,    817284,    818187
    721845,    817375,    817377,    817362,    817284
** ... 1475 like lines cut
**HWNAME COMP         46 RIGIDS_CON
**HWCOLOR COMP         46     2
*KINEMATIC COUPLING,REF NODE=848416
    815995,1,6
    815996,1,6
    815997,1,6
    815998,1,6
    815999,1,6
    816000,1,6
    816001,1,6
    816002,1,6
    816003,1,6
    816004,1,6
    816091,1,6
    816092,1,6
    816093,1,6
    816094,1,6
    816095,1,6
    816112,1,6
    816114,1,6
    816129,1,6
    816132,1,6
    816136,1,6
*KINEMATIC COUPLING,REF NODE=848417
    816005,1,6
    816006,1,6
    816007,1,6
    816008,1,6
    816009,1,6
    816010,1,6
    816011,1,6
    816012,1,6
    816013,1,6
    816014,1,6
    816097,1,6
    816098,1,6
    816099,1,6
    816100,1,6
    816101,1,6
    816102,1,6
    816103,1,6
    816104,1,6
    816105,1,6
    816121,1,6
    816147,1,6
*KINEMATIC COUPLING,REF NODE=848419
    816785,1,6
    816797,1,6
    816799,1,6
    816800,1,6
    816827,1,6
    816874,1,6
    816903,1,6
    816904,1,6
    817570,1,6
    817581,1,6
    817585,1,6
    817586,1,6
    817588,1,6
    817593,1,6
    817647,1,6
    817648,1,6
    817650,1,6
    817651,1,6
    817669,1,6
    817692,1,6
    817809,1,6
*KINEMATIC COUPLING,REF NODE=848418
    816779,1,6
    816786,1,6
    816788,1,6
    816796,1,6
    816801,1,6
    816804,1,6
    816891,1,6
    816899,1,6
    816900,1,6
    816909,1,6
    817021,1,6
    817678,1,6
    817680,1,6
    817681,1,6
    817684,1,6
    817685,1,6
    817784,1,6
    817785,1,6
    817806,1,6
    817807,1,6
    817808,1,6
**HWNAME COMP         48 RIGIDS_FORCES
**HWCOLOR COMP         48     2
*KINEMATIC COUPLING,REF NODE=848415
    810503,1,6
    810504,1,6
    810505,1,6
    810506,1,6
    810515,1,6
    810516,1,6
    810517,1,6
    810518,1,6
    810519,1,6
    810520,1,6
    810546,1,6
    810547,1,6
    810552,1,6
    810553,1,6
    810554,1,6
    810555,1,6
    810562,1,6
    810563,1,6
    810564,1,6
    810565,1,6
** ... 187 like lines cut
**HWNAME COMP         52 RIGIDS_01
**HWCOLOR COMP         52    41
*MPC
TIE,    810527,    818225
TIE,    810719,    818225
TIE,    810730,    818225
TIE,    810732,    818225
TIE,    810735,    818225
TIE,    810736,    818225
TIE,    810758,    818225
TIE,    810760,    818225
TIE,    810763,    818225
TIE,    810764,    818225
TIE,    810784,    818225
TIE,    810932,    818225
TIE,    810936,    818225
TIE,    810937,    818225
TIE,    810938,    818225
TIE,    810939,    818225
TIE,    810960,    818225
TIE,    810961,    818225
TIE,    810962,    818225
TIE,    810963,    818225
** ... 70 like lines cut
*SHELL SECTION, ELSET=Middle Surface_G, MATERIAL=SPFH540
2.6       ,         5
**HWCOLOR COMP         53    11
*SHELL SECTION, ELSET=Middle Surface_H, MATERIAL=SPFH540
3.2       ,         5
**HWCOLOR COMP         54     7
*SHELL SECTION, ELSET=Middle_Surface_I, MATERIAL=SPFH540
3.2       ,         5
**HWCOLOR COMP         55     7
*MATERIAL, NAME=SPFH540
*DENSITY
7.8500E-09,0.0       
*ELASTIC, TYPE = ISOTROPIC
205000.0  ,0.29      ,0.0       
*PLASTIC
432.6568  ,0.0       ,0.0       
440.654   ,0.006001  ,0.0       
450.0291  ,0.009578  ,0.0       
465.6513  ,0.014631  ,0.0       
475.5776  ,0.017889  ,0.0       
484.4594  ,0.021218  ,0.0       
490.0161  ,0.023305  ,0.0       
504.9025  ,0.029457  ,0.0       
515.3103  ,0.034232  ,0.0       
520.7548  ,0.03672   ,0.0       
536.1949  ,0.045008  ,0.0       
541.7793  ,0.048114  ,0.0       
552.1915  ,0.048115  ,0.0       
567.7356  ,0.054191  ,0.0       
573.5365  ,0.064754  ,0.0       
591.0221  ,0.069253  ,0.0       
609.7424  ,0.084959  ,0.0       
616.1904  ,0.105101  ,0.0       
629.3182  ,0.113123  ,0.0       
632.5585  ,0.12179   ,0.0       
** ... 4 like lines cut
**HMNAME LOADSTEP          1 B
*STEP, INC =   500, NAME = B, NLGEOM = YES
*STATIC
0.01      ,          ,          ,          
**HWNAME LOADCOL          1 CON
**HWCOLOR LOADCOL          1     4
*BOUNDARY
    848419,1,6,0.0
    848418,1,6,0.0
    848417,1,6,0.0
    848416,1,6,0.0
**HWNAME LOADCOL          3 FORCES
**HWCOLOR LOADCOL          3    53
*CLOAD
    848415,1,-520.0845404552
    848415,2,1931.1944411242
    848415,3,-0.318355566378
*NODE FILE
U, 
*EL FILE
SINV, 
*END STEP
*****
